tests/shunt-network.xiidm
<?xml version="1.0" encoding="UTF-8"?>
<iidm:network xmlns:iidm="http://www.powsybl.org/schema/iidm/1_16" id="svc" caseDate="2026-05-04T10:47:38.561Z" forecastDistance="0" sourceFormat="test" minimumValidationLevel="STEADY_STATE_HYPOTHESIS">
    <iidm:substation id="S1">
        <iidm:voltageLevel id="vl1" nominalV="400.0" topologyKind="BUS_BREAKER">
            <iidm:busBreakerTopology>
                <iidm:bus id="b1"/>
            </iidm:busBreakerTopology>
            <iidm:generator id="g1" energySource="OTHER" minP="0.0" maxP="150.0" voltageRegulatorOn="true" targetP="101.3664" targetV="390.0" bus="b1" connectableBus="b1">
                <iidm:minMaxReactiveLimits minQ="-1.7976931348623157E308" maxQ="1.7976931348623157E308"/>
            </iidm:generator>
        </iidm:voltageLevel>
    </iidm:substation>
    <iidm:substation id="S2">
        <iidm:voltageLevel id="vl2" nominalV="400.0" topologyKind="BUS_BREAKER">
            <iidm:busBreakerTopology>
                <iidm:bus id="b2"/>
            </iidm:busBreakerTopology>
            <iidm:load id="ld1" loadType="UNDEFINED" p0="101.0" q0="150.0" bus="b2" connectableBus="b2"/>
        </iidm:voltageLevel>
        <iidm:voltageLevel id="vl3" nominalV="400.0" topologyKind="BUS_BREAKER">
            <iidm:busBreakerTopology>
                <iidm:bus id="b3"/>
            </iidm:busBreakerTopology>
            <iidm:shuntCompensator id="SHUNT" sectionCount="0" voltageRegulatorOn="true" targetV="393.0" targetDeadband="5.0" bus="b3" connectableBus="b3">
                <iidm:shuntNonLinearModel>
                    <iidm:section b="0.001" g="0.0"/>
                    <iidm:section b="0.003" g="0.0"/>
                </iidm:shuntNonLinearModel>
            </iidm:shuntCompensator>
        </iidm:voltageLevel>
    </iidm:substation>
    <iidm:line id="l1" r="1.0" x="3.0" g1="0.0" b1="0.0" g2="0.0" b2="0.0" voltageLevelId1="vl1" bus1="b1" connectableBus1="b1" voltageLevelId2="vl2" bus2="b2" connectableBus2="b2"/>
    <iidm:line id="l2" r="1.0" x="3.0" g1="0.0" b1="0.0" g2="0.0" b2="0.0" voltageLevelId1="vl3" bus1="b3" connectableBus1="b3" voltageLevelId2="vl2" bus2="b2" connectableBus2="b2"/>
</iidm:network>
